<?xml version="1.0" encoding="UTF-8"?>

<!-- generated on Sat 14 Sep 2019 08:13:40 PM PDT by Eclipse SUMO netedit Version 1.1.0
<configuration xmlns:xsi="http://www.w3.org/2001/XMLSchema-instance" xsi:noNamespaceSchemaLocation="http://sumo.dlr.de/xsd/netconvertConfiguration.xsd">

    <input>
        <sumo-net-file value="mtv_tiny.net.xml"/>
    </input>

    <output>
        <output-file value="mtv_tiny.net.xml"/>
    </output>

    <processing>
        <geometry.max-grade.fix value="false"/>
        <offset.disable-normalization value="true"/>
        <lefthand value="false"/>
    </processing>

    <junctions>
        <no-turnarounds value="true"/>
        <junctions.corner-detail value="5"/>
        <junctions.limit-turn-speed value="5.5"/>
        <rectangular-lane-cut value="false"/>
    </junctions>

    <pedestrian>
        <walkingareas value="false"/>
    </pedestrian>

</configuration>
-->

<net version="1.1" junctionCornerDetail="5" limitTurnSpeed="5.50" xmlns:xsi="http://www.w3.org/2001/XMLSchema-instance" xsi:noNamespaceSchemaLocation="http://sumo.dlr.de/xsd/net_file.xsd">

    <location netOffset="-580074.13,-4140225.28" convBoundary="0.00,0.00,1889.38,1960.54" origBoundary="-122.095020,37.405324,-122.082265,37.423532" projParameter="+proj=utm +zone=10 +ellps=WGS84 +datum=WGS84 +units=m +no_defs"/>

    <type id="cycleway.shared_lane" priority="1" numLanes="1" speed="8.33" allow="bicycle" oneway="0" width="1.00"/>
    <type id="cycleway.shared_lane|highway.residential" priority="4" numLanes="1" speed="13.89" disallow="tram rail_urban rail rail_electric ship" oneway="0" width="3.20"/>
    <type id="highway.bridleway" priority="1" numLanes="1" speed="2.78" allow="pedestrian" oneway="1" width="2.00"/>
    <type id="highway.bus_guideway" priority="1" numLanes="1" speed="27.78" allow="bus" oneway="1"/>
    <type id="highway.cycleway" priority="1" numLanes="1" speed="8.33" allow="bicycle" oneway="0" width="1.00"/>
    <type id="highway.footway" priority="1" numLanes="1" speed="2.78" allow="pedestrian" oneway="1" width="2.00"/>
    <type id="highway.ford" priority="1" numLanes="1" speed="2.78" allow="army" oneway="0"/>
    <type id="highway.living_street" priority="3" numLanes="1" speed="2.78" disallow="tram rail_urban rail rail_electric ship" oneway="0"/>
    <type id="highway.motorway" priority="13" numLanes="2" speed="44.17" allow="private emergency authority army vip passenger hov taxi bus coach delivery truck trailer motorcycle evehicle custom1 custom2" oneway="1"/>
    <type id="highway.motorway_carpool" priority="12" numLanes="1" speed="30.22" allow="private emergency authority army vip passenger hov taxi bus coach delivery truck trailer motorcycle evehicle custom1 custom2" oneway="1"/>
    <type id="highway.motorway_link" priority="12" numLanes="1" speed="30.22" allow="private emergency authority army vip passenger hov taxi bus coach delivery truck trailer motorcycle evehicle custom1 custom2" oneway="1"/>
    <type id="highway.path" priority="1" numLanes="1" speed="2.78" allow="bicycle pedestrian" oneway="1" width="2.00"/>
    <type id="highway.pedestrian" priority="1" numLanes="1" speed="2.78" allow="pedestrian" oneway="1" width="2.00"/>
    <type id="highway.primary" priority="9" numLanes="2" speed="30.78" disallow="tram rail_urban rail rail_electric ship" oneway="0"/>
    <type id="highway.primary_link" priority="8" numLanes="1" speed="22.22" disallow="tram rail_urban rail rail_electric ship" oneway="0"/>
    <type id="highway.raceway" priority="14" numLanes="2" speed="83.33" allow="vip" oneway="0"/>
    <type id="highway.residential" priority="4" numLanes="1" speed="13.89" disallow="tram rail_urban rail rail_electric ship" oneway="0"/>
    <type id="highway.secondary" priority="7" numLanes="2" speed="27.78" disallow="tram rail_urban rail rail_electric ship" oneway="0"/>
    <type id="highway.secondary_link" priority="6" numLanes="1" speed="22.22" disallow="tram rail_urban rail rail_electric ship" oneway="0"/>
    <type id="highway.service" priority="2" numLanes="1" speed="5.59" allow="delivery bicycle pedestrian" oneway="0"/>
    <type id="highway.stairs" priority="1" numLanes="1" speed="1.39" allow="pedestrian" oneway="1" width="2.00"/>
    <type id="highway.step" priority="1" numLanes="1" speed="1.39" allow="pedestrian" oneway="1" width="2.00"/>
    <type id="highway.steps" priority="1" numLanes="1" speed="1.39" allow="pedestrian" oneway="1" width="2.00"/>
    <type id="highway.tertiary" priority="6" numLanes="1" speed="22.22" disallow="tram rail_urban rail rail_electric ship" oneway="0"/>
    <type id="highway.tertiary_link" priority="5" numLanes="1" speed="22.22" disallow="tram rail_urban rail rail_electric ship" oneway="0"/>
    <type id="highway.track" priority="1" numLanes="1" speed="5.58" disallow="tram rail_urban rail rail_electric ship" oneway="0"/>
    <type id="highway.trunk" priority="11" numLanes="2" speed="27.78" disallow="tram rail_urban rail rail_electric bicycle pedestrian ship" oneway="0"/>
    <type id="highway.trunk_link" priority="10" numLanes="1" speed="22.22" disallow="tram rail_urban rail rail_electric bicycle pedestrian ship" oneway="0"/>
    <type id="highway.unclassified" priority="5" numLanes="1" speed="13.89" disallow="tram rail_urban rail rail_electric ship" oneway="0"/>
    <type id="highway.unsurfaced" priority="1" numLanes="1" speed="8.33" disallow="tram rail_urban rail rail_electric ship" oneway="0"/>
    <type id="railway.light_rail" priority="15" numLanes="1" speed="27.78" allow="rail_urban" oneway="1"/>
    <type id="railway.preserved" priority="15" numLanes="1" speed="27.78" allow="rail" oneway="1"/>
    <type id="railway.rail" priority="15" numLanes="1" speed="83.33" allow="rail rail_electric" oneway="1"/>
    <type id="railway.subway" priority="15" numLanes="1" speed="27.78" allow="rail_urban" oneway="1"/>
    <type id="railway.tram" priority="15" numLanes="1" speed="13.89" allow="tram" oneway="1"/>

    <edge id=":1070279511_0" function="internal">
        <lane id=":1070279511_0_0" index="0" disallow="tram rail_urban rail rail_electric ship" speed="13.89" length="0.28" shape="624.52,1156.43 624.24,1156.45"/>
    </edge>
    <edge id=":1070279511_1" function="internal">
        <lane id=":1070279511_1_0" index="0" disallow="tram rail_urban rail rail_electric ship" speed="3.65" length="2.34" shape="624.52,1156.43 623.28,1155.68 622.85,1154.90"/>
    </edge>
    <edge id=":1070279511_4" function="internal">
        <lane id=":1070279511_4_0" index="0" disallow="tram rail_urban rail rail_electric ship" speed="3.65" length="2.34" shape="622.85,1154.90 623.21,1154.09 624.38,1153.24"/>
    </edge>
    <edge id=":1070279511_2" function="internal">
        <lane id=":1070279511_2_0" index="0" disallow="tram rail_urban rail rail_electric ship" speed="13.89" length="0.31" shape="624.07,1153.25 624.38,1153.24"/>
    </edge>
    <edge id=":1070279511_3" function="internal">
        <lane id=":1070279511_3_0" index="0" disallow="tram rail_urban rail rail_electric ship" speed="3.65" length="2.34" shape="624.07,1153.25 625.31,1153.98 625.75,1154.76"/>
    </edge>
    <edge id=":1070279511_5" function="internal">
        <lane id=":1070279511_5_0" index="0" disallow="tram rail_urban rail rail_electric ship" speed="3.65" length="2.34" shape="625.75,1154.76 625.39,1155.58 624.24,1156.45"/>
    </edge>
    <edge id=":1070279512_0" function="internal">
        <lane id=":1070279512_0_0" index="0" disallow="tram rail_urban rail rail_electric ship" speed="3.65" length="4.67" shape="628.08,1307.49 629.50,1307.27 630.34,1307.59 630.59,1308.45 630.24,1309.85"/>
    </edge>
    <edge id=":1389186265_0" function="internal">
        <lane id=":1389186265_0_0" index="0" disallow="tram rail_urban rail rail_electric ship" speed="13.89" length="0.30" width="3.20" shape="464.52,1406.03 464.48,1406.33"/>
    </edge>
    <edge id=":1389186265_1" function="internal">
        <lane id=":1389186265_1_0" index="0" disallow="tram rail_urban rail rail_electric ship" speed="3.65" length="2.34" width="3.20" shape="464.52,1406.03 463.59,1407.13 462.75,1407.44"/>
    </edge>
    <edge id=":1389186265_4" function="internal">
        <lane id=":1389186265_4_0" index="0" disallow="tram rail_urban rail rail_electric ship" speed="3.65" length="2.34" width="3.20" shape="462.75,1407.44 462.00,1406.95 461.34,1405.67"/>
    </edge>
    <edge id=":1389186265_2" function="internal">
        <lane id=":1389186265_2_0" index="0" disallow="tram rail_urban rail rail_electric ship" speed="13.89" length="0.30" width="3.20" shape="461.30,1405.97 461.34,1405.67"/>
    </edge>
    <edge id=":1389186265_3" function="internal">
        <lane id=":1389186265_3_0" index="0" disallow="tram rail_urban rail rail_electric ship" speed="3.65" length="2.34" width="3.20" shape="461.30,1405.97 462.23,1404.87 463.07,1404.56"/>
    </edge>
    <edge id=":1389186265_5" function="internal">
        <lane id=":1389186265_5_0" index="0" disallow="tram rail_urban rail rail_electric ship" speed="3.65" length="2.34" width="3.20" shape="463.07,1404.56 463.82,1405.05 464.48,1406.33"/>
    </edge>
    <edge id=":1389188609_0" function="internal">
        <lane id=":1389188609_0_0" index="0" disallow="tram rail_urban rail rail_electric ship" speed="13.89" length="0.30" shape="293.64,1338.50 293.34,1338.52"/>
    </edge>
    <edge id=":1389188609_1" function="internal">
        <lane id=":1389188609_1_0" index="0" disallow="tram rail_urban rail rail_electric ship" speed="3.65" length="2.34" shape="293.64,1338.50 292.40,1337.77 291.95,1337.00"/>
    </edge>
    <edge id=":1389188609_4" function="internal">
        <lane id=":1389188609_4_0" index="0" disallow="tram rail_urban rail rail_electric ship" speed="3.65" length="2.34" shape="291.95,1337.00 292.30,1336.17 293.46,1335.30"/>
    </edge>
    <edge id=":1389188609_2" function="internal">
        <lane id=":1389188609_2_0" index="0" disallow="tram rail_urban rail rail_electric ship" speed="13.89" length="0.30" shape="293.16,1335.32 293.46,1335.30"/>
    </edge>
    <edge id=":1389188609_3" function="internal">
        <lane id=":1389188609_3_0" index="0" disallow="tram rail_urban rail rail_electric ship" speed="3.65" length="2.34" shape="293.16,1335.32 294.40,1336.05 294.85,1336.83"/>
    </edge>
    <edge id=":1389188609_5" function="internal">
        <lane id=":1389188609_5_0" index="0" disallow="tram rail_urban rail rail_electric ship" speed="3.65" length="2.34" shape="294.85,1336.83 294.49,1337.65 293.34,1338.52"/>
    </edge>
    <edge id=":1389188611_0" function="internal">
        <lane id=":1389188611_0_0" index="0" disallow="tram rail_urban rail rail_electric ship" speed="13.89" length="0.30" shape="316.59,1337.15 316.29,1337.17"/>
    </edge>
    <edge id=":1389188611_1" function="internal">
        <lane id=":1389188611_1_0" index="0" disallow="tram rail_urban rail rail_electric ship" speed="3.65" length="2.34" shape="316.59,1337.15 315.35,1336.42 314.90,1335.64"/>
    </edge>
    <edge id=":1389188611_4" function="internal">
        <lane id=":1389188611_4_0" index="0" disallow="tram rail_urban rail rail_electric ship" speed="3.65" length="2.34" shape="314.90,1335.64 315.26,1334.82 316.41,1333.95"/>
    </edge>
    <edge id=":1389188611_2" function="internal">
        <lane id=":1389188611_2_0" index="0" disallow="tram rail_urban rail rail_electric ship" speed="13.89" length="0.30" shape="316.11,1333.97 316.41,1333.95"/>
    </edge>
    <edge id=":1389188611_3" function="internal">
        <lane id=":1389188611_3_0" index="0" disallow="tram rail_urban rail rail_electric ship" speed="3.65" length="2.34" shape="316.11,1333.97 317.35,1334.70 317.80,1335.47"/>
    </edge>
    <edge id=":1389188611_5" function="internal">
        <lane id=":1389188611_5_0" index="0" disallow="tram rail_urban rail rail_electric ship" speed="3.65" length="2.34" shape="317.80,1335.47 317.45,1336.30 316.29,1337.17"/>
    </edge>
    <edge id=":1395295821_0" function="internal">
        <lane id=":1395295821_0_0" index="0" disallow="tram rail_urban rail rail_electric ship" speed="13.89" length="0.10" shape="863.22,1291.04 863.22,1291.04"/>
    </edge>
    <edge id=":1395295821_1" function="internal">
        <lane id=":1395295821_1_0" index="0" disallow="tram rail_urban rail rail_electric ship" speed="3.65" length="2.34" shape="863.22,1291.04 862.41,1292.24 861.61,1292.63"/>
    </edge>
    <edge id=":1395295821_4" function="internal">
        <lane id=":1395295821_4_0" index="0" disallow="tram rail_urban rail rail_electric ship" speed="3.65" length="2.34" shape="861.61,1292.63 860.81,1292.22 860.02,1291.02"/>
    </edge>
    <edge id=":1395295821_2" function="internal">
        <lane id=":1395295821_2_0" index="0" disallow="tram rail_urban rail rail_electric ship" speed="13.89" length="0.10" shape="860.02,1291.02 860.02,1291.02"/>
    </edge>
    <edge id=":1395295821_3" function="internal">
        <lane id=":1395295821_3_0" index="0" disallow="tram rail_urban rail rail_electric ship" speed="3.65" length="2.34" shape="860.02,1291.02 860.83,1289.82 861.63,1289.43"/>
    </edge>
    <edge id=":1395295821_5" function="internal">
        <lane id=":1395295821_5_0" index="0" disallow="tram rail_urban rail rail_electric ship" speed="3.65" length="2.34" shape="861.63,1289.43 862.43,1289.84 863.22,1291.04"/>
    </edge>
    <edge id=":1395295836_0" function="internal">
        <lane id=":1395295836_0_0" index="0" disallow="tram rail_urban rail rail_electric ship" speed="13.89" length="0.29" shape="862.69,1353.77 862.69,1354.07"/>
    </edge>
    <edge id=":1395295836_1" function="internal">
        <lane id=":1395295836_1_0" index="0" disallow="tram rail_urban rail rail_electric ship" speed="3.65" length="2.34" shape="862.69,1353.77 861.88,1354.97 861.08,1355.36"/>
    </edge>
    <edge id=":1395295836_4" function="internal">
        <lane id=":1395295836_4_0" index="0" disallow="tram rail_urban rail rail_electric ship" speed="3.65" length="2.34" shape="861.08,1355.36 860.28,1354.95 859.49,1353.75"/>
    </edge>
    <edge id=":1395295836_2" function="internal">
        <lane id=":1395295836_2_0" index="0" disallow="tram rail_urban rail rail_electric ship" speed="13.89" length="0.31" shape="859.49,1354.05 859.49,1353.75"/>
    </edge>
    <edge id=":1395295836_3" function="internal">
        <lane id=":1395295836_3_0" index="0" disallow="tram rail_urban rail rail_electric ship" speed="3.65" length="2.34" shape="859.49,1354.05 860.29,1352.86 861.10,1352.46"/>
    </edge>
    <edge id=":1395295836_5" function="internal">
        <lane id=":1395295836_5_0" index="0" disallow="tram rail_urban rail rail_electric ship" speed="3.65" length="2.34" shape="861.10,1352.46 861.89,1352.86 862.69,1354.07"/>
    </edge>
    <edge id=":152208176_0" function="internal">
        <lane id=":152208176_0_0" index="0" disallow="tram rail_urban rail rail_electric ship" speed="3.65" length="4.67" shape="898.55,1182.40 899.98,1182.18 900.81,1182.50 901.06,1183.36 900.71,1184.76"/>
    </edge>
    <edge id=":239637816_0" function="internal">
        <lane id=":239637816_0_0" index="0" allow="private emergency authority army vip passenger hov taxi bus coach delivery truck trailer motorcycle evehicle custom1 custom2" speed="37.20" length="9.45" shape="787.18,1251.82 785.95,1254.30 786.82,1257.08 787.65,1260.00 786.34,1262.85"/>
        <lane id=":239637816_0_1" index="1" allow="private emergency authority army vip passenger hov taxi bus coach delivery truck trailer motorcycle evehicle custom1 custom2" speed="37.20" length="9.45" shape="787.18,1251.82 785.66,1253.90 785.61,1256.03 785.60,1258.22 784.21,1260.47"/>
        <lane id=":239637816_0_2" index="2" allow="private emergency authority army vip passenger hov taxi bus coach delivery truck trailer motorcycle evehicle custom1 custom2" speed="37.20" length="9.45" shape="787.18,1251.82 785.45,1253.45 784.55,1254.85 783.69,1256.31 782.08,1258.08"/>
        <lane id=":239637816_0_3" index="3" allow="private emergency authority army vip passenger hov taxi bus coach delivery truck trailer motorcycle evehicle custom1 custom2" speed="37.20" length="9.45" shape="787.18,1251.82 785.10,1253.08 783.48,1253.66 781.91,1254.28 779.94,1255.70"/>
    </edge>
    <edge id=":239637816_4" function="internal">
        <lane id=":239637816_4_0" index="0" allow="private emergency authority army vip passenger hov taxi bus coach delivery truck trailer motorcycle evehicle custom1 custom2" speed="44.17" length="7.98" shape="792.28,1257.55 786.34,1262.85"/>
        <lane id=":239637816_4_1" index="1" allow="private emergency authority army vip passenger hov taxi bus coach delivery truck trailer motorcycle evehicle custom1 custom2" speed="44.17" length="7.98" shape="790.16,1255.16 784.21,1260.47"/>
        <lane id=":239637816_4_2" index="2" allow="private emergency authority army vip passenger hov taxi bus coach delivery truck trailer motorcycle evehicle custom1 custom2" speed="44.17" length="7.98" shape="788.03,1252.77 782.08,1258.08"/>
        <lane id=":239637816_4_3" index="3" allow="private emergency authority army vip passenger hov taxi bus coach delivery truck trailer motorcycle evehicle custom1 custom2" speed="44.17" length="7.98" shape="785.90,1250.38 779.94,1255.70"/>
        <lane id=":239637816_4_4" index="4" allow="private emergency authority army vip passenger hov taxi bus coach delivery truck trailer motorcycle evehicle custom1 custom2" speed="44.17" length="7.98" shape="783.78,1247.99 777.81,1253.31"/>
        <lane id=":239637816_4_5" index="5" allow="private emergency authority army vip passenger hov taxi bus coach delivery truck trailer motorcycle evehicle custom1 custom2" speed="44.17" length="7.98" shape="781.65,1245.59 775.68,1250.92"/>
    </edge>
    <edge id=":3090070846_0" function="internal">
        <lane id=":3090070846_0_0" index="0" disallow="tram rail_urban rail rail_electric ship" speed="27.78" length="0.28" shape="693.14,993.12 692.86,993.14"/>
        <lane id=":3090070846_0_1" index="1" disallow="tram rail_urban rail rail_electric ship" speed="27.78" length="0.28" shape="692.93,989.93 692.64,989.95"/>
    </edge>
    <edge id=":3090070846_2" function="internal">
        <lane id=":3090070846_2_0" index="0" disallow="tram rail_urban rail rail_electric ship" speed="3.65" length="2.34" shape="692.93,989.93 691.68,989.21 691.23,988.44"/>
    </edge>
    <edge id=":3090070846_7" function="internal">
        <lane id=":3090070846_7_0" index="0" disallow="tram rail_urban rail rail_electric ship" speed="3.65" length="2.34" shape="691.23,988.44 691.58,987.61 692.72,986.73"/>
    </edge>
    <edge id=":3090070846_3" function="internal">
        <lane id=":3090070846_3_0" index="0" disallow="tram rail_urban rail rail_electric ship" speed="27.78" length="0.31" shape="691.98,980.37 692.30,980.35"/>
        <lane id=":3090070846_3_1" index="1" disallow="tram rail_urban rail rail_electric ship" speed="27.78" length="0.31" shape="692.20,983.56 692.51,983.54"/>
        <lane id=":3090070846_3_2" index="2" disallow="tram rail_urban rail rail_electric ship" speed="27.78" length="0.31" shape="692.42,986.75 692.72,986.73"/>
    </edge>
    <edge id=":3090070846_6" function="internal">
        <lane id=":3090070846_6_0" index="0" disallow="tram rail_urban rail rail_electric ship" speed="3.65" length="2.34" shape="692.42,986.75 693.68,987.47 694.13,988.24"/>
    </edge>
    <edge id=":3090070846_8" function="internal">
        <lane id=":3090070846_8_0" index="0" disallow="tram rail_urban rail rail_electric ship" speed="3.65" length="2.34" shape="694.13,988.24 693.79,989.07 692.64,989.95"/>
    </edge>
    <edge id=":3090070847_0" function="internal">
        <lane id=":3090070847_0_0" index="0" disallow="tram rail_urban rail rail_electric ship" speed="27.78" length="0.57" shape="638.38,996.95 637.74,996.99"/>
        <lane id=":3090070847_0_1" index="1" disallow="tram rail_urban rail rail_electric ship" speed="27.78" length="0.57" shape="638.14,993.76 637.64,993.79"/>
    </edge>
    <edge id=":3090070847_2" function="internal">
        <lane id=":3090070847_2_0" index="0" disallow="tram rail_urban rail rail_electric ship" speed="3.65" length="2.34" shape="638.14,993.76 636.88,993.06 636.42,992.29"/>
    </edge>
    <edge id=":3090070847_7" function="internal">
        <lane id=":3090070847_7_0" index="0" disallow="tram rail_urban rail rail_electric ship" speed="3.65" length="2.34" shape="636.42,992.29 636.76,991.46 637.89,990.57"/>
    </edge>
    <edge id=":3090070847_3" function="internal">
        <lane id=":3090070847_3_0" index="0" disallow="tram rail_urban rail rail_electric ship" speed="27.78" length="0.22" shape="637.34,984.19 637.40,984.19"/>
        <lane id=":3090070847_3_1" index="1" disallow="tram rail_urban rail rail_electric ship" speed="27.78" length="0.22" shape="637.44,987.39 637.65,987.38"/>
        <lane id=":3090070847_3_2" index="2" disallow="tram rail_urban rail rail_electric ship" speed="27.78" length="0.22" shape="637.54,990.59 637.89,990.57"/>
    </edge>
    <edge id=":3090070847_6" function="internal">
        <lane id=":3090070847_6_0" index="0" disallow="tram rail_urban rail rail_electric ship" speed="3.65" length="2.34" shape="637.54,990.59 638.77,991.35 639.19,992.14"/>
    </edge>
    <edge id=":3090070847_8" function="internal">
        <lane id=":3090070847_8_0" index="0" disallow="tram rail_urban rail rail_electric ship" speed="3.65" length="2.34" shape="639.19,992.14 638.82,992.95 637.64,993.79"/>
    </edge>
    <edge id=":3090070848_0" function="internal">
        <lane id=":3090070848_0_0" index="0" disallow="tram rail_urban rail rail_electric ship" speed="27.78" length="0.30" shape="591.92,999.75 591.61,999.77"/>
        <lane id=":3090070848_0_1" index="1" disallow="tram rail_urban rail rail_electric ship" speed="27.78" length="0.30" shape="591.71,996.56 591.40,996.58"/>
    </edge>
    <edge id=":3090070848_2" function="internal">
        <lane id=":3090070848_2_0" index="0" disallow="tram rail_urban rail rail_electric ship" speed="3.65" length="2.34" shape="591.71,996.56 590.46,995.84 590.00,995.07"/>
    </edge>
    <edge id=":3090070848_7" function="internal">
        <lane id=":3090070848_7_0" index="0" disallow="tram rail_urban rail rail_electric ship" speed="3.65" length="2.34" shape="590.00,995.07 590.35,994.24 591.49,993.36"/>
    </edge>
    <edge id=":3090070848_3" function="internal">
        <lane id=":3090070848_3_0" index="0" disallow="tram rail_urban rail rail_electric ship" speed="27.78" length="0.30" shape="590.78,987.00 591.07,986.98"/>
        <lane id=":3090070848_3_1" index="1" disallow="tram rail_urban rail rail_electric ship" speed="27.78" length="0.30" shape="590.99,990.19 591.28,990.17"/>
        <lane id=":3090070848_3_2" index="2" disallow="tram rail_urban rail rail_electric ship" speed="27.78" length="0.30" shape="591.20,993.38 591.49,993.36"/>
    </edge>
    <edge id=":3090070848_6" function="internal">
        <lane id=":3090070848_6_0" index="0" disallow="tram rail_urban rail rail_electric ship" speed="3.65" length="2.34" shape="591.20,993.38 592.45,994.10 592.90,994.88"/>
    </edge>
    <edge id=":3090070848_8" function="internal">
        <lane id=":3090070848_8_0" index="0" disallow="tram rail_urban rail rail_electric ship" speed="3.65" length="2.34" shape="592.90,994.88 592.55,995.70 591.40,996.58"/>
    </edge>
    <edge id=":3695571594_0" function="internal">
        <lane id=":3695571594_0_0" index="0" disallow="tram rail_urban rail rail_electric ship" speed="13.89" length="0.10" shape="329.89,1336.38 329.89,1336.38"/>
    </edge>
    <edge id=":3695571594_1" function="internal">
        <lane id=":3695571594_1_0" index="0" disallow="tram rail_urban rail rail_electric ship" speed="3.65" length="2.34" shape="329.89,1336.38 328.65,1335.65 328.20,1334.87"/>
    </edge>
    <edge id=":3695571594_4" function="internal">
        <lane id=":3695571594_4_0" index="0" disallow="tram rail_urban rail rail_electric ship" speed="3.65" length="2.34" shape="328.20,1334.87 328.56,1334.05 329.71,1333.18"/>
    </edge>
    <edge id=":3695571594_2" function="internal">
        <lane id=":3695571594_2_0" index="0" disallow="tram rail_urban rail rail_electric ship" speed="13.89" length="0.10" shape="329.71,1333.18 329.71,1333.18"/>
    </edge>
    <edge id=":3695571594_3" function="internal">
        <lane id=":3695571594_3_0" index="0" disallow="tram rail_urban rail rail_electric ship" speed="3.65" length="2.34" shape="329.71,1333.18 330.95,1333.91 331.40,1334.69"/>
    </edge>
    <edge id=":3695571594_5" function="internal">
        <lane id=":3695571594_5_0" index="0" disallow="tram rail_urban rail rail_electric ship" speed="3.65" length="2.34" shape="331.40,1334.69 331.04,1335.51 329.89,1336.38"/>
    </edge>
    <edge id=":3695853618_0" function="internal">
        <lane id=":3695853618_0_0" index="0" disallow="tram rail_urban rail rail_electric ship" speed="13.89" length="0.10" shape="326.52,1173.98 326.52,1173.98"/>
    </edge>
    <edge id=":3695853618_1" function="internal">
        <lane id=":3695853618_1_0" index="0" disallow="tram rail_urban rail rail_electric ship" speed="3.65" length="2.34" shape="326.52,1173.98 325.27,1173.26 324.81,1172.49"/>
    </edge>
    <edge id=":3695853618_4" function="internal">
        <lane id=":3695853618_4_0" index="0" disallow="tram rail_urban rail rail_electric ship" speed="3.65" length="2.34" shape="324.81,1172.49 325.16,1171.66 326.30,1170.78"/>
    </edge>
    <edge id=":3695853618_2" function="internal">
        <lane id=":3695853618_2_0" index="0" disallow="tram rail_urban rail rail_electric ship" speed="13.89" length="0.10" shape="326.30,1170.78 326.30,1170.78"/>
    </edge>
    <edge id=":3695853618_3" function="internal">
        <lane id=":3695853618_3_0" index="0" disallow="tram rail_urban rail rail_electric ship" speed="3.65" length="2.34" shape="326.30,1170.78 327.55,1171.50 328.01,1172.27"/>
    </edge>
    <edge id=":3695853618_5" function="internal">
        <lane id=":3695853618_5_0" index="0" disallow="tram rail_urban rail rail_electric ship" speed="3.65" length="2.34" shape="328.01,1172.27 327.66,1173.09 326.52,1173.98"/>
    </edge>
    <edge id=":3696012694_0" function="internal">
        <lane id=":3696012694_0_0" index="0" disallow="tram rail_urban rail rail_electric ship" speed="3.65" length="4.67" shape="1135.43,1263.75 1136.67,1264.48 1137.12,1265.26 1136.77,1266.08 1135.61,1266.95"/>
    </edge>
    <edge id=":3902433255_0" function="internal">
        <lane id=":3902433255_0_0" index="0" disallow="tram rail_urban rail rail_electric ship" speed="27.78" length="0.10" shape="744.09,989.78 744.11,989.78"/>
        <lane id=":3902433255_0_1" index="1" disallow="tram rail_urban rail rail_electric ship" speed="27.78" length="0.10" shape="744.00,986.58 743.90,986.59"/>
    </edge>
    <edge id=":3902433255_2" function="internal">
        <lane id=":3902433255_2_0" index="0" disallow="tram rail_urban rail rail_electric ship" speed="3.65" length="2.34" shape="744.00,986.58 742.78,985.81 742.36,985.02"/>
    </edge>
    <edge id=":3902433255_7" function="internal">
        <lane id=":3902433255_7_0" index="0" disallow="tram rail_urban rail rail_electric ship" speed="3.65" length="2.34" shape="742.36,985.02 742.74,984.21 743.92,983.38"/>
    </edge>
    <edge id=":3902433255_3" function="internal">
        <lane id=":3902433255_3_0" index="0" disallow="tram rail_urban rail rail_electric ship" speed="27.78" length="0.35" shape="743.27,977.01 743.74,976.98"/>
        <lane id=":3902433255_3_1" index="1" disallow="tram rail_urban rail rail_electric ship" speed="27.78" length="0.35" shape="743.48,980.20 743.83,980.18"/>
        <lane id=":3902433255_3_2" index="2" disallow="tram rail_urban rail rail_electric ship" speed="27.78" length="0.35" shape="743.69,983.39 743.92,983.38"/>
    </edge>
    <edge id=":3902433255_6" function="internal">
        <lane id=":3902433255_6_0" index="0" disallow="tram rail_urban rail rail_electric ship" speed="3.65" length="2.34" shape="743.69,983.39 744.94,984.11 745.39,984.89"/>
    </edge>
    <edge id=":3902433255_8" function="internal">
        <lane id=":3902433255_8_0" index="0" disallow="tram rail_urban rail rail_electric ship" speed="3.65" length="2.34" shape="745.39,984.89 745.05,985.71 743.90,986.59"/>
    </edge>
    <edge id=":392010544_0" function="internal">
        <lane id=":392010544_0_0" index="0" disallow="tram rail_urban rail rail_electric ship" speed="13.89" length="0.30" shape="862.53,1385.95 862.53,1386.25"/>
    </edge>
    <edge id=":392010544_1" function="internal">
        <lane id=":392010544_1_0" index="0" disallow="tram rail_urban rail rail_electric ship" speed="3.65" length="2.34" shape="862.53,1385.95 861.72,1387.14 860.92,1387.54"/>
    </edge>
    <edge id=":392010544_4" function="internal">
        <lane id=":392010544_4_0" index="0" disallow="tram rail_urban rail rail_electric ship" speed="3.65" length="2.34" shape="860.92,1387.54 860.12,1387.14 859.33,1385.93"/>
    </edge>
    <edge id=":392010544_2" function="internal">
        <lane id=":392010544_2_0" index="0" disallow="tram rail_urban rail rail_electric ship" speed="13.89" length="0.30" shape="859.33,1386.23 859.33,1385.93"/>
    </edge>
    <edge id=":392010544_3" function="internal">
        <lane id=":392010544_3_0" index="0" disallow="tram rail_urban rail rail_electric ship" speed="3.65" length="2.34" shape="859.33,1386.23 860.14,1385.04 860.94,1384.64"/>
    </edge>
    <edge id=":392010544_5" function="internal">
        <lane id=":392010544_5_0" index="0" disallow="tram rail_urban rail rail_electric ship" speed="3.65" length="2.34" shape="860.94,1384.64 861.74,1385.04 862.53,1386.25"/>
    </edge>
    <edge id=":4177188867_0" function="internal">